<routes>
        <vType id="typeWE" accel="0.8" decel="4.5" sigma="0.5" length="5" minGap="2.5" maxSpeed="18"/>
        <vType id="typeNS" accel="0.8" decel="4.5" sigma="0.5" length="5" minGap="2.5" maxSpeed="18"/>

        <route id="right" edges="left0A0 A0right0" />
        <route id="left" edges="right0A0 A0left0" />
        <route id="down" edges="top0A0 A0bottom0" />
        <route id="up" edges="bottom0A0 A0top0" /> 
    <vehicle id="left_0" type="typeWE" route="left" depart="0" />
    <vehicle id="left_1" type="typeWE" route="left" depart="2" />
    <vehicle id="right_2" type="typeWE" route="right" depart="3" />
    <vehicle id="up_3" type="typeNS" route="up" depart="4" color="1,0,0"/>
    <vehicle id="left_4" type="typeWE" route="left" depart="10" />
    <vehicle id="up_5" type="typeNS" route="up" depart="16" color="1,0,0"/>
    <vehicle id="left_6" type="typeWE" route="left" depart="22" />
    <vehicle id="down_7" type="typeNS" route="down" depart="23" color="1,0,0"/>
    <vehicle id="right_8" type="typeWE" route="right" depart="25" />
    <vehicle id="right_9" type="typeWE" route="right" depart="31" />
    <vehicle id="down_10" type="typeNS" route="down" depart="31" color="1,0,0"/>
    <vehicle id="up_11" type="typeNS" route="up" depart="32" color="1,0,0"/>
    <vehicle id="left_12" type="typeWE" route="left" depart="49" />
    <vehicle id="up_13" type="typeNS" route="up" depart="51" color="1,0,0"/>
    <vehicle id="right_14" type="typeWE" route="right" depart="56" />
    <vehicle id="left_15" type="typeWE" route="left" depart="67" />
    <vehicle id="down_16" type="typeNS" route="down" depart="72" color="1,0,0"/>
    <vehicle id="left_17" type="typeWE" route="left" depart="74" />
    <vehicle id="right_18" type="typeWE" route="right" depart="81" />
    <vehicle id="down_19" type="typeNS" route="down" depart="85" color="1,0,0"/>
    <vehicle id="right_20" type="typeWE" route="right" depart="92" />
    <vehicle id="down_21" type="typeNS" route="down" depart="98" color="1,0,0"/>
    <vehicle id="up_22" type="typeNS" route="up" depart="103" color="1,0,0"/>
    <vehicle id="up_23" type="typeNS" route="up" depart="106" color="1,0,0"/>
    <vehicle id="up_24" type="typeNS" route="up" depart="108" color="1,0,0"/>
    <vehicle id="left_25" type="typeWE" route="left" depart="117" />
    <vehicle id="left_26" type="typeWE" route="left" depart="120" />
    <vehicle id="left_27" type="typeWE" route="left" depart="123" />
    <vehicle id="left_28" type="typeWE" route="left" depart="125" />
    <vehicle id="right_29" type="typeWE" route="right" depart="126" />
    <vehicle id="right_30" type="typeWE" route="right" depart="127" />
    <vehicle id="down_31" type="typeNS" route="down" depart="129" color="1,0,0"/>
    <vehicle id="right_32" type="typeWE" route="right" depart="132" />
    <vehicle id="up_33" type="typeNS" route="up" depart="135" color="1,0,0"/>
    <vehicle id="left_34" type="typeWE" route="left" depart="147" />
    <vehicle id="down_35" type="typeNS" route="down" depart="149" color="1,0,0"/>
    <vehicle id="left_36" type="typeWE" route="left" depart="159" />
    <vehicle id="up_37" type="typeNS" route="up" depart="162" color="1,0,0"/>
    <vehicle id="down_38" type="typeNS" route="down" depart="164" color="1,0,0"/>
    <vehicle id="right_39" type="typeWE" route="right" depart="171" />
    <vehicle id="right_40" type="typeWE" route="right" depart="179" />
    <vehicle id="right_41" type="typeWE" route="right" depart="182" />
    <vehicle id="left_42" type="typeWE" route="left" depart="204" />
    <vehicle id="down_43" type="typeNS" route="down" depart="206" color="1,0,0"/>
    <vehicle id="up_44" type="typeNS" route="up" depart="212" color="1,0,0"/>
    <vehicle id="right_45" type="typeWE" route="right" depart="216" />
    <vehicle id="down_46" type="typeNS" route="down" depart="220" color="1,0,0"/>
    <vehicle id="right_47" type="typeWE" route="right" depart="227" />
    <vehicle id="right_48" type="typeWE" route="right" depart="239" />
    <vehicle id="down_49" type="typeNS" route="down" depart="241" color="1,0,0"/>
    <vehicle id="up_50" type="typeNS" route="up" depart="242" color="1,0,0"/>
    <vehicle id="up_51" type="typeNS" route="up" depart="248" color="1,0,0"/>
    <vehicle id="left_52" type="typeWE" route="left" depart="253" />
    <vehicle id="down_53" type="typeNS" route="down" depart="256" color="1,0,0"/>
    <vehicle id="left_54" type="typeWE" route="left" depart="258" />
    <vehicle id="down_55" type="typeNS" route="down" depart="258" color="1,0,0"/>
    <vehicle id="up_56" type="typeNS" route="up" depart="259" color="1,0,0"/>
    <vehicle id="left_57" type="typeWE" route="left" depart="262" />
    <vehicle id="up_58" type="typeNS" route="up" depart="263" color="1,0,0"/>
    <vehicle id="right_59" type="typeWE" route="right" depart="266" />
    <vehicle id="left_60" type="typeWE" route="left" depart="281" />
    <vehicle id="left_61" type="typeWE" route="left" depart="283" />
    <vehicle id="up_62" type="typeNS" route="up" depart="284" color="1,0,0"/>
    <vehicle id="left_63" type="typeWE" route="left" depart="287" />
    <vehicle id="left_64" type="typeWE" route="left" depart="291" />
    <vehicle id="right_65" type="typeWE" route="right" depart="292" />
    <vehicle id="down_66" type="typeNS" route="down" depart="293" color="1,0,0"/>
    <vehicle id="right_67" type="typeWE" route="right" depart="296" />
    <vehicle id="left_68" type="typeWE" route="left" depart="296" />
    <vehicle id="left_69" type="typeWE" route="left" depart="298" />
    <vehicle id="right_70" type="typeWE" route="right" depart="310" />
    <vehicle id="right_71" type="typeWE" route="right" depart="311" />
    <vehicle id="left_72" type="typeWE" route="left" depart="315" />
    <vehicle id="right_73" type="typeWE" route="right" depart="320" />
    <vehicle id="down_74" type="typeNS" route="down" depart="330" color="1,0,0"/>
    <vehicle id="left_75" type="typeWE" route="left" depart="343" />
    <vehicle id="down_76" type="typeNS" route="down" depart="343" color="1,0,0"/>
    <vehicle id="up_77" type="typeNS" route="up" depart="344" color="1,0,0"/>
    <vehicle id="up_78" type="typeNS" route="up" depart="347" color="1,0,0"/>
    <vehicle id="left_79" type="typeWE" route="left" depart="350" />
    <vehicle id="right_80" type="typeWE" route="right" depart="352" />
    <vehicle id="left_81" type="typeWE" route="left" depart="357" />
    <vehicle id="left_82" type="typeWE" route="left" depart="359" />
    <vehicle id="down_83" type="typeNS" route="down" depart="361" color="1,0,0"/>
    <vehicle id="down_84" type="typeNS" route="down" depart="362" color="1,0,0"/>
    <vehicle id="right_85" type="typeWE" route="right" depart="363" />
    <vehicle id="left_86" type="typeWE" route="left" depart="372" />
    <vehicle id="left_87" type="typeWE" route="left" depart="376" />
    <vehicle id="up_88" type="typeNS" route="up" depart="385" color="1,0,0"/>
    <vehicle id="right_89" type="typeWE" route="right" depart="389" />
    <vehicle id="down_90" type="typeNS" route="down" depart="395" color="1,0,0"/>
    <vehicle id="right_91" type="typeWE" route="right" depart="402" />
    <vehicle id="left_92" type="typeWE" route="left" depart="402" />
    <vehicle id="left_93" type="typeWE" route="left" depart="406" />
    <vehicle id="left_94" type="typeWE" route="left" depart="414" />
    <vehicle id="up_95" type="typeNS" route="up" depart="415" color="1,0,0"/>
    <vehicle id="up_96" type="typeNS" route="up" depart="423" color="1,0,0"/>
    <vehicle id="left_97" type="typeWE" route="left" depart="430" />
    <vehicle id="up_98" type="typeNS" route="up" depart="433" color="1,0,0"/>
    <vehicle id="down_99" type="typeNS" route="down" depart="434" color="1,0,0"/>
    <vehicle id="up_100" type="typeNS" route="up" depart="436" color="1,0,0"/>
    <vehicle id="down_101" type="typeNS" route="down" depart="450" color="1,0,0"/>
    <vehicle id="up_102" type="typeNS" route="up" depart="451" color="1,0,0"/>
    <vehicle id="right_103" type="typeWE" route="right" depart="459" />
    <vehicle id="down_104" type="typeNS" route="down" depart="468" color="1,0,0"/>
    <vehicle id="left_105" type="typeWE" route="left" depart="469" />
    <vehicle id="right_106" type="typeWE" route="right" depart="477" />
    <vehicle id="right_107" type="typeWE" route="right" depart="481" />
    <vehicle id="right_108" type="typeWE" route="right" depart="483" />
    <vehicle id="down_109" type="typeNS" route="down" depart="483" color="1,0,0"/>
    <vehicle id="up_110" type="typeNS" route="up" depart="484" color="1,0,0"/>
    <vehicle id="left_111" type="typeWE" route="left" depart="490" />
    <vehicle id="down_112" type="typeNS" route="down" depart="490" color="1,0,0"/>
    <vehicle id="down_113" type="typeNS" route="down" depart="494" color="1,0,0"/>
    <vehicle id="left_114" type="typeWE" route="left" depart="495" />
    <vehicle id="right_115" type="typeWE" route="right" depart="496" />
    <vehicle id="down_116" type="typeNS" route="down" depart="497" color="1,0,0"/>
    <vehicle id="right_117" type="typeWE" route="right" depart="501" />
    <vehicle id="down_118" type="typeNS" route="down" depart="512" color="1,0,0"/>
    <vehicle id="down_119" type="typeNS" route="down" depart="525" color="1,0,0"/>
    <vehicle id="up_120" type="typeNS" route="up" depart="525" color="1,0,0"/>
    <vehicle id="right_121" type="typeWE" route="right" depart="528" />
    <vehicle id="right_122" type="typeWE" route="right" depart="530" />
    <vehicle id="down_123" type="typeNS" route="down" depart="530" color="1,0,0"/>
    <vehicle id="down_124" type="typeNS" route="down" depart="531" color="1,0,0"/>
    <vehicle id="right_125" type="typeWE" route="right" depart="538" />
    <vehicle id="left_126" type="typeWE" route="left" depart="538" />
    <vehicle id="down_127" type="typeNS" route="down" depart="540" color="1,0,0"/>
    <vehicle id="up_128" type="typeNS" route="up" depart="541" color="1,0,0"/>
    <vehicle id="right_129" type="typeWE" route="right" depart="543" />
    <vehicle id="left_130" type="typeWE" route="left" depart="548" />
    <vehicle id="left_131" type="typeWE" route="left" depart="550" />
    <vehicle id="left_132" type="typeWE" route="left" depart="555" />
    <vehicle id="down_133" type="typeNS" route="down" depart="557" color="1,0,0"/>
    <vehicle id="right_134" type="typeWE" route="right" depart="562" />
    <vehicle id="up_135" type="typeNS" route="up" depart="580" color="1,0,0"/>
    <vehicle id="down_136" type="typeNS" route="down" depart="582" color="1,0,0"/>
    <vehicle id="down_137" type="typeNS" route="down" depart="585" color="1,0,0"/>
    <vehicle id="up_138" type="typeNS" route="up" depart="593" color="1,0,0"/>
    <vehicle id="right_139" type="typeWE" route="right" depart="596" />
    <vehicle id="right_140" type="typeWE" route="right" depart="606" />
    <vehicle id="down_141" type="typeNS" route="down" depart="606" color="1,0,0"/>
    <vehicle id="left_142" type="typeWE" route="left" depart="609" />
    <vehicle id="left_143" type="typeWE" route="left" depart="613" />
    <vehicle id="down_144" type="typeNS" route="down" depart="619" color="1,0,0"/>
    <vehicle id="right_145" type="typeWE" route="right" depart="629" />
    <vehicle id="up_146" type="typeNS" route="up" depart="630" color="1,0,0"/>
    <vehicle id="right_147" type="typeWE" route="right" depart="634" />
    <vehicle id="up_148" type="typeNS" route="up" depart="635" color="1,0,0"/>
    <vehicle id="up_149" type="typeNS" route="up" depart="640" color="1,0,0"/>
    <vehicle id="right_150" type="typeWE" route="right" depart="642" />
    <vehicle id="up_151" type="typeNS" route="up" depart="646" color="1,0,0"/>
    <vehicle id="down_152" type="typeNS" route="down" depart="654" color="1,0,0"/>
    <vehicle id="left_153" type="typeWE" route="left" depart="659" />
    <vehicle id="right_154" type="typeWE" route="right" depart="660" />
    <vehicle id="left_155" type="typeWE" route="left" depart="660" />
    <vehicle id="left_156" type="typeWE" route="left" depart="665" />
    <vehicle id="left_157" type="typeWE" route="left" depart="666" />
    <vehicle id="up_158" type="typeNS" route="up" depart="671" color="1,0,0"/>
    <vehicle id="down_159" type="typeNS" route="down" depart="672" color="1,0,0"/>
    <vehicle id="left_160" type="typeWE" route="left" depart="676" />
    <vehicle id="up_161" type="typeNS" route="up" depart="683" color="1,0,0"/>
    <vehicle id="right_162" type="typeWE" route="right" depart="687" />
    <vehicle id="up_163" type="typeNS" route="up" depart="688" color="1,0,0"/>
    <vehicle id="up_164" type="typeNS" route="up" depart="690" color="1,0,0"/>
    <vehicle id="up_165" type="typeNS" route="up" depart="701" color="1,0,0"/>
    <vehicle id="left_166" type="typeWE" route="left" depart="704" />
    <vehicle id="left_167" type="typeWE" route="left" depart="706" />
    <vehicle id="right_168" type="typeWE" route="right" depart="709" />
    <vehicle id="left_169" type="typeWE" route="left" depart="709" />
    <vehicle id="right_170" type="typeWE" route="right" depart="711" />
    <vehicle id="down_171" type="typeNS" route="down" depart="712" color="1,0,0"/>
    <vehicle id="left_172" type="typeWE" route="left" depart="714" />
    <vehicle id="up_173" type="typeNS" route="up" depart="715" color="1,0,0"/>
    <vehicle id="left_174" type="typeWE" route="left" depart="721" />
    <vehicle id="right_175" type="typeWE" route="right" depart="724" />
    <vehicle id="left_176" type="typeWE" route="left" depart="727" />
    <vehicle id="right_177" type="typeWE" route="right" depart="731" />
    <vehicle id="right_178" type="typeWE" route="right" depart="733" />
    <vehicle id="up_179" type="typeNS" route="up" depart="741" color="1,0,0"/>
    <vehicle id="down_180" type="typeNS" route="down" depart="747" color="1,0,0"/>
    <vehicle id="up_181" type="typeNS" route="up" depart="754" color="1,0,0"/>
    <vehicle id="left_182" type="typeWE" route="left" depart="758" />
    <vehicle id="up_183" type="typeNS" route="up" depart="760" color="1,0,0"/>
    <vehicle id="down_184" type="typeNS" route="down" depart="765" color="1,0,0"/>
    <vehicle id="left_185" type="typeWE" route="left" depart="782" />
    <vehicle id="down_186" type="typeNS" route="down" depart="783" color="1,0,0"/>
    <vehicle id="left_187" type="typeWE" route="left" depart="785" />
    <vehicle id="down_188" type="typeNS" route="down" depart="792" color="1,0,0"/>
    <vehicle id="up_189" type="typeNS" route="up" depart="795" color="1,0,0"/>
    <vehicle id="right_190" type="typeWE" route="right" depart="801" />
    <vehicle id="up_191" type="typeNS" route="up" depart="801" color="1,0,0"/>
    <vehicle id="up_192" type="typeNS" route="up" depart="802" color="1,0,0"/>
    <vehicle id="down_193" type="typeNS" route="down" depart="808" color="1,0,0"/>
    <vehicle id="right_194" type="typeWE" route="right" depart="814" />
    <vehicle id="down_195" type="typeNS" route="down" depart="824" color="1,0,0"/>
    <vehicle id="left_196" type="typeWE" route="left" depart="828" />
    <vehicle id="down_197" type="typeNS" route="down" depart="831" color="1,0,0"/>
    <vehicle id="left_198" type="typeWE" route="left" depart="832" />
    <vehicle id="left_199" type="typeWE" route="left" depart="841" />
    <vehicle id="left_200" type="typeWE" route="left" depart="842" />
    <vehicle id="left_201" type="typeWE" route="left" depart="843" />
    <vehicle id="left_202" type="typeWE" route="left" depart="850" />
    <vehicle id="down_203" type="typeNS" route="down" depart="851" color="1,0,0"/>
    <vehicle id="up_204" type="typeNS" route="up" depart="855" color="1,0,0"/>
    <vehicle id="down_205" type="typeNS" route="down" depart="857" color="1,0,0"/>
    <vehicle id="up_206" type="typeNS" route="up" depart="862" color="1,0,0"/>
    <vehicle id="left_207" type="typeWE" route="left" depart="865" />
    <vehicle id="left_208" type="typeWE" route="left" depart="867" />
    <vehicle id="up_209" type="typeNS" route="up" depart="872" color="1,0,0"/>
    <vehicle id="left_210" type="typeWE" route="left" depart="875" />
    <vehicle id="left_211" type="typeWE" route="left" depart="879" />
    <vehicle id="up_212" type="typeNS" route="up" depart="881" color="1,0,0"/>
    <vehicle id="right_213" type="typeWE" route="right" depart="886" />
    <vehicle id="left_214" type="typeWE" route="left" depart="892" />
    <vehicle id="right_215" type="typeWE" route="right" depart="906" />
    <vehicle id="right_216" type="typeWE" route="right" depart="909" />
    <vehicle id="up_217" type="typeNS" route="up" depart="913" color="1,0,0"/>
    <vehicle id="down_218" type="typeNS" route="down" depart="921" color="1,0,0"/>
    <vehicle id="right_219" type="typeWE" route="right" depart="928" />
    <vehicle id="up_220" type="typeNS" route="up" depart="932" color="1,0,0"/>
    <vehicle id="up_221" type="typeNS" route="up" depart="934" color="1,0,0"/>
    <vehicle id="right_222" type="typeWE" route="right" depart="935" />
    <vehicle id="left_223" type="typeWE" route="left" depart="939" />
    <vehicle id="down_224" type="typeNS" route="down" depart="941" color="1,0,0"/>
    <vehicle id="left_225" type="typeWE" route="left" depart="950" />
    <vehicle id="right_226" type="typeWE" route="right" depart="961" />
    <vehicle id="up_227" type="typeNS" route="up" depart="966" color="1,0,0"/>
    <vehicle id="left_228" type="typeWE" route="left" depart="967" />
    <vehicle id="right_229" type="typeWE" route="right" depart="976" />
    <vehicle id="down_230" type="typeNS" route="down" depart="976" color="1,0,0"/>
    <vehicle id="right_231" type="typeWE" route="right" depart="978" />
    <vehicle id="left_232" type="typeWE" route="left" depart="988" />
    <vehicle id="down_233" type="typeNS" route="down" depart="988" color="1,0,0"/>
    <vehicle id="down_234" type="typeNS" route="down" depart="989" color="1,0,0"/>
    <vehicle id="right_235" type="typeWE" route="right" depart="990" />
    <vehicle id="down_236" type="typeNS" route="down" depart="991" color="1,0,0"/>
    <vehicle id="left_237" type="typeWE" route="left" depart="999" />
    <vehicle id="down_238" type="typeNS" route="down" depart="1002" color="1,0,0"/>
    <vehicle id="left_239" type="typeWE" route="left" depart="1008" />
    <vehicle id="up_240" type="typeNS" route="up" depart="1017" color="1,0,0"/>
    <vehicle id="right_241" type="typeWE" route="right" depart="1019" />
    <vehicle id="up_242" type="typeNS" route="up" depart="1019" color="1,0,0"/>
    <vehicle id="down_243" type="typeNS" route="down" depart="1023" color="1,0,0"/>
    <vehicle id="up_244" type="typeNS" route="up" depart="1024" color="1,0,0"/>
    <vehicle id="left_245" type="typeWE" route="left" depart="1025" />
    <vehicle id="down_246" type="typeNS" route="down" depart="1035" color="1,0,0"/>
    <vehicle id="right_247" type="typeWE" route="right" depart="1038" />
    <vehicle id="up_248" type="typeNS" route="up" depart="1045" color="1,0,0"/>
    <vehicle id="right_249" type="typeWE" route="right" depart="1049" />
    <vehicle id="right_250" type="typeWE" route="right" depart="1052" />
    <vehicle id="down_251" type="typeNS" route="down" depart="1062" color="1,0,0"/>
    <vehicle id="right_252" type="typeWE" route="right" depart="1065" />
    <vehicle id="up_253" type="typeNS" route="up" depart="1074" color="1,0,0"/>
    <vehicle id="up_254" type="typeNS" route="up" depart="1076" color="1,0,0"/>
    <vehicle id="down_255" type="typeNS" route="down" depart="1077" color="1,0,0"/>
    <vehicle id="right_256" type="typeWE" route="right" depart="1081" />
    <vehicle id="down_257" type="typeNS" route="down" depart="1087" color="1,0,0"/>
    <vehicle id="up_258" type="typeNS" route="up" depart="1088" color="1,0,0"/>
    <vehicle id="up_259" type="typeNS" route="up" depart="1089" color="1,0,0"/>
    <vehicle id="up_260" type="typeNS" route="up" depart="1090" color="1,0,0"/>
    <vehicle id="up_261" type="typeNS" route="up" depart="1097" color="1,0,0"/>
    <vehicle id="right_262" type="typeWE" route="right" depart="1098" />
    <vehicle id="up_263" type="typeNS" route="up" depart="1102" color="1,0,0"/>
    <vehicle id="left_264" type="typeWE" route="left" depart="1106" />
    <vehicle id="up_265" type="typeNS" route="up" depart="1108" color="1,0,0"/>
    <vehicle id="up_266" type="typeNS" route="up" depart="1112" color="1,0,0"/>
    <vehicle id="right_267" type="typeWE" route="right" depart="1113" />
    <vehicle id="right_268" type="typeWE" route="right" depart="1116" />
    <vehicle id="left_269" type="typeWE" route="left" depart="1124" />
    <vehicle id="left_270" type="typeWE" route="left" depart="1125" />
    <vehicle id="up_271" type="typeNS" route="up" depart="1134" color="1,0,0"/>
    <vehicle id="up_272" type="typeNS" route="up" depart="1136" color="1,0,0"/>
    <vehicle id="left_273" type="typeWE" route="left" depart="1150" />
    <vehicle id="left_274" type="typeWE" route="left" depart="1152" />
    <vehicle id="right_275" type="typeWE" route="right" depart="1158" />
    <vehicle id="down_276" type="typeNS" route="down" depart="1160" color="1,0,0"/>
    <vehicle id="down_277" type="typeNS" route="down" depart="1161" color="1,0,0"/>
    <vehicle id="up_278" type="typeNS" route="up" depart="1162" color="1,0,0"/>
    <vehicle id="up_279" type="typeNS" route="up" depart="1165" color="1,0,0"/>
    <vehicle id="up_280" type="typeNS" route="up" depart="1171" color="1,0,0"/>
    <vehicle id="down_281" type="typeNS" route="down" depart="1173" color="1,0,0"/>
    <vehicle id="left_282" type="typeWE" route="left" depart="1175" />
    <vehicle id="down_283" type="typeNS" route="down" depart="1176" color="1,0,0"/>
    <vehicle id="down_284" type="typeNS" route="down" depart="1177" color="1,0,0"/>
    <vehicle id="right_285" type="typeWE" route="right" depart="1180" />
    <vehicle id="up_286" type="typeNS" route="up" depart="1180" color="1,0,0"/>
    <vehicle id="right_287" type="typeWE" route="right" depart="1182" />
    <vehicle id="down_288" type="typeNS" route="down" depart="1182" color="1,0,0"/>
    <vehicle id="right_289" type="typeWE" route="right" depart="1184" />
    <vehicle id="down_290" type="typeNS" route="down" depart="1187" color="1,0,0"/>
    <vehicle id="up_291" type="typeNS" route="up" depart="1191" color="1,0,0"/>
</routes>
