<routes>
        <vType id="typeWE" accel="0.8" decel="4.5" sigma="0.5" length="5" minGap="2.5" maxSpeed="18"/>
        <vType id="typeNS" accel="0.8" decel="4.5" sigma="0.5" length="5" minGap="2.5" maxSpeed="18"/>

        <route id="right" edges="left0A0 A0right0" />
        <route id="left" edges="right0A0 A0left0" />
        <route id="down" edges="top0A0 A0bottom0" />
        <route id="up" edges="bottom0A0 A0top0" /> 
    <vehicle id="left_0" type="typeWE" route="left" depart="0" />
    <vehicle id="left_1" type="typeWE" route="left" depart="2" />
    <vehicle id="right_2" type="typeWE" route="right" depart="3" />
    <vehicle id="up_3" type="typeNS" route="up" depart="4" color="1,0,0"/>
    <vehicle id="left_4" type="typeWE" route="left" depart="10" />
    <vehicle id="up_5" type="typeNS" route="up" depart="16" color="1,0,0"/>
    <vehicle id="left_6" type="typeWE" route="left" depart="22" />
    <vehicle id="down_7" type="typeNS" route="down" depart="23" color="1,0,0"/>
    <vehicle id="right_8" type="typeWE" route="right" depart="25" />
    <vehicle id="right_9" type="typeWE" route="right" depart="31" />
    <vehicle id="down_10" type="typeNS" route="down" depart="31" color="1,0,0"/>
    <vehicle id="up_11" type="typeNS" route="up" depart="32" color="1,0,0"/>
    <vehicle id="left_12" type="typeWE" route="left" depart="49" />
    <vehicle id="up_13" type="typeNS" route="up" depart="51" color="1,0,0"/>
    <vehicle id="right_14" type="typeWE" route="right" depart="56" />
    <vehicle id="left_15" type="typeWE" route="left" depart="67" />
    <vehicle id="down_16" type="typeNS" route="down" depart="72" color="1,0,0"/>
    <vehicle id="left_17" type="typeWE" route="left" depart="74" />
    <vehicle id="right_18" type="typeWE" route="right" depart="81" />
    <vehicle id="down_19" type="typeNS" route="down" depart="85" color="1,0,0"/>
    <vehicle id="right_20" type="typeWE" route="right" depart="92" />
    <vehicle id="down_21" type="typeNS" route="down" depart="98" color="1,0,0"/>
    <vehicle id="up_22" type="typeNS" route="up" depart="103" color="1,0,0"/>
    <vehicle id="up_23" type="typeNS" route="up" depart="106" color="1,0,0"/>
    <vehicle id="up_24" type="typeNS" route="up" depart="108" color="1,0,0"/>
    <vehicle id="left_25" type="typeWE" route="left" depart="117" />
</routes>
